Version 4
SHEET 1 2088 1336
WIRE 400 0 80 0
WIRE 544 0 400 0
WIRE 640 0 544 0
WIRE 704 0 640 0
WIRE 80 64 80 0
WIRE 400 96 400 0
WIRE 544 96 544 0
WIRE 704 96 704 0
WIRE 80 160 80 144
WIRE 640 160 640 0
WIRE 640 160 624 160
WIRE 624 192 624 160
WIRE 400 208 400 176
WIRE 592 208 400 208
WIRE 704 224 704 176
WIRE 704 224 656 224
WIRE 800 224 704 224
WIRE 864 224 800 224
WIRE 544 240 544 176
WIRE 576 240 544 240
WIRE 592 240 576 240
WIRE 176 272 80 272
WIRE 272 272 240 272
WIRE 400 272 400 208
WIRE 400 272 352 272
WIRE 576 304 576 240
WIRE 720 304 576 304
WIRE 800 304 800 224
WIRE 80 320 80 272
WIRE 400 320 400 272
WIRE 544 320 544 240
WIRE 624 400 624 256
WIRE 80 416 80 400
WIRE 400 432 400 400
WIRE 544 432 544 400
FLAG 80 160 0
FLAG 80 416 0
FLAG 400 432 0
FLAG 544 432 0
FLAG 624 400 0
FLAG 864 224 Vout
FLAG 80 272 Vin
SYMBOL voltage 80 48 R0
WINDOW 123 0 0 Left 0
WINDOW 39 0 0 Left 0
SYMATTR InstName V1
SYMATTR Value 5
SYMBOL voltage 80 304 R0
WINDOW 123 0 0 Left 0
WINDOW 39 0 0 Left 0
SYMATTR InstName V2
SYMATTR Value SINE(0 9.5 60)
SYMBOL cap 240 256 R90
WINDOW 0 0 32 VBottom 2
WINDOW 3 32 32 VTop 2
SYMATTR InstName C1
SYMATTR Value 10µF
SYMBOL res 368 256 R90
WINDOW 0 0 56 VBottom 2
WINDOW 3 32 56 VTop 2
SYMATTR InstName R1
SYMATTR Value 33K
SYMBOL res 416 416 R180
WINDOW 0 36 76 Left 2
WINDOW 3 36 40 Left 2
SYMATTR InstName R2
SYMATTR Value 10k
SYMBOL res 416 192 R180
WINDOW 0 36 76 Left 2
WINDOW 3 36 40 Left 2
SYMATTR InstName R3
SYMATTR Value 10K
SYMBOL res 560 192 R180
WINDOW 0 36 76 Left 2
WINDOW 3 36 40 Left 2
SYMATTR InstName R4
SYMATTR Value 10k
SYMBOL res 560 416 R180
WINDOW 0 36 76 Left 2
WINDOW 3 36 40 Left 2
SYMATTR InstName R5
SYMATTR Value 10k
SYMBOL res 704 320 R270
WINDOW 0 32 56 VTop 2
WINDOW 3 0 56 VBottom 2
SYMATTR InstName R6
SYMATTR Value 330k
SYMBOL res 688 80 R0
SYMATTR InstName R7
SYMATTR Value 3.3k
SYMBOL OpAmps\\opamp2 624 160 R0
SYMATTR InstName U1
SYMATTR Value LM393A
TEXT 1080 56 Left 2 !* LM393A VOLTAGE COMPARATOR "MACROMODEL" SUBCIRCUIT\n* CREATED USING PARTS VERSION 4.03 ON 03/07/90 AT 14:17\n* REV (N/A)\n* CONNECTIONS:   NON-INVERTING INPUT\n*                | INVERTING INPUT\n*                | | POSITIVE POWER SUPPLY\n*                | | | NEGATIVE POWER SUPPLY\n*                | | | | OPEN COLLECTOR OUTPUT\n*                | | | | |\n.SUBCKT LM393A   1 2 3 4 5\n*\n  F1    9  3 V1 1\n  IEE   3  7 DC 100.0E-6\n  VI1  21  1 DC .75\n  VI2  22  2 DC .75\n  Q1    9 21  7 QIN\n  Q2    8 22  7 QIN\n  Q3    9  8  4 QMO\n  Q4    8  8  4 QMI\n.MODEL QIN PNP(IS=800.0E-18 BF=2.000E3)\n.MODEL QMI NPN(IS=800.0E-18 BF=1002)\n.MODEL QMO NPN(IS=800.0E-18 BF=1000 CJC=1E-15 TR=807.4E-9)\n  E1   10  4  9  4  1\n  V1   10 11 DC 0\n  Q5    5 11  4 QOC\n.MODEL QOC NPN(IS=800.0E-18 BF=20.29E3 CJC=1E-15 TF=942.6E-12 TR=543.8E-9)\n  DP    4  3 DX\n  RP 3  4 46.3E3\n.MODEL DX  D(IS=800.0E-18)\n*\n.ENDS
TEXT 70 460 Left 2 !.tran 0 1 0 startup
